/*--------------------------------*- C++ -*----------------------------------*\
| =========                 |                                                 |
| \\      /  F ield         | OpenFOAM: The Open Source CFD Toolbox           |
|  \\    /   O peration     | Version:  v1912                                 |
|   \\  /    A nd           | Website:  www.openfoam.com                      |
|    \\/     M anipulation  |                                                 |
\*---------------------------------------------------------------------------*/
FoamFile
{
    version     2.0;
    format      ascii;
    class       volScalarField;
    object      k;
}
// * * * * * * * * * * * * * * * * * * * * * * * * * * * * * * * * * * * * * //

#include        "include/initialConditions"

dimensions      [0 2 -2 0 0 0 0];

internalField   uniform $turbulentKE;

boundaryField
{
    front
    {
        type            empty;
    }
    inlet
    {
        type  fixedValue;
	value $internalField;
    }
    back
    {
        type            empty;
    }
    top
    {
        type            slip;
    }
    cylinderfront
    {
        type            kqRWallFunction;
        value           $internalField;
    }
    bottom
    {
        type            slip;
    }
    outlet
    {
        type            inletOutlet;
        inletValue      $internalField;
        value           $internalField;
    }
    cylinderback
    {
        type            kqRWallFunction;
        value           $internalField;
    }
    region0_to_wallFilmRegion_wallFilmFaces
    {
        type            kqRWallFunction;
        value           $internalField;
    }
}


// ************************************************************************* //
