/*--------------------------------*- C++ -*----------------------------------*\
| =========                 |                                                 |
| \\      /  F ield         | OpenFOAM: The Open Source CFD Toolbox           |
|  \\    /   O peration     | Version:  v1912                                 |
|   \\  /    A nd           | Website:  www.openfoam.com                      |
|    \\/     M anipulation  |                                                 |
\*---------------------------------------------------------------------------*/
FoamFile
{
    version     2.0;
    format      binary;
    class       volVectorField;
    arch        "LSB;label=32;scalar=64";
    location    "0/wallFilmRegion";
    object      Uf;
}
// * * * * * * * * * * * * * * * * * * * * * * * * * * * * * * * * * * * * * //

dimensions      [0 1 -1 0 0 0 0];


internalField   uniform (0 0 0);

boundaryField
{
    front
    {
        type            empty;
    }
    back
    {
        type            empty;
    }
    cylinderback
    {
        type            noSlip;
    }
    wallFilmFaces_top
    {
        type            slip;
    }
    region0_to_wallFilmRegion_wallFilmFaces
    {
        type            noSlip;
    }
}


// ************************************************************************* //
