/*--------------------------------*- C++ -*----------------------------------*\
| =========                 |                                                 |
| \\      /  F ield         | OpenFOAM: The Open Source CFD Toolbox           |
|  \\    /   O peration     | Version:  v1806                                 |
|   \\  /    A nd           | Web:      www.OpenFOAM.com                      |
|    \\/     M anipulation  |                                                 |
\*---------------------------------------------------------------------------*/
FoamFile
{
    version     2.0;
    format      ascii;
    class       dictionary;
    location    "constant";
    object      surfaceFilmProperties;
}
// * * * * * * * * * * * * * * * * * * * * * * * * * * * * * * * * * * * * * //

surfaceFilmModel SWIMIILayer;

region          wallFilmRegion;

active          true;

SWIMIILayerCoeffs
{
    filmThermoModel liquid;


    Lf 335e3;

    rhoIce 900;

    liquidCoeffs
    {
        useReferenceValues  no;
        liquid      H2O;
    }

    filmViscosityModel liquid;

    deltaWet    1e-4;

    hydrophilic no;

    turbulence  laminar;
    laminarCoeffs
    {
        Cf          0.005;
    }

    forces
    (
        thermocapillary
    );

    injectionModels ();

    phaseChangeModel none;

    radiationModel none;

    upperSurfaceModels
    {
        heatTransferModel constant;
        constantCoeffs
        {
            c0                0;
        }

//	heatTransferModel mappedConvectiveHeatTransfer;
    }

    lowerSurfaceModels
    {
        heatTransferModel constant;
        constantCoeffs
        {
            c0                0;
        }
    }
}
