/*--------------------------------*- C++ -*----------------------------------*\
| =========                 |                                                 |
| \\      /  F ield         | OpenFOAM: The Open Source CFD Toolbox           |
|  \\    /   O peration     | Version:  v1912                                 |
|   \\  /    A nd           | Website:  www.openfoam.com                      |
|    \\/     M anipulation  |                                                 |
\*---------------------------------------------------------------------------*/
FoamFile
{
    version     2.0;
    format      ascii;
    class       polyBoundaryMesh;
    location    "constant/wallFilmRegion/polyMesh";
    object      boundary;
}
// * * * * * * * * * * * * * * * * * * * * * * * * * * * * * * * * * * * * * //

4
(
    back
    {
        type            empty;
        inGroups        1(empty);
        nFaces          120;
        startFace       120;
    }
    front
    {
        type            empty;
        inGroups        1(empty);
        nFaces          120;
        startFace       240;
    }
    wallFilmFaces_top
    {
        type            patch;
        nFaces          120;
        startFace       360;
    }
    region0_to_wallFilmRegion_wallFilmFaces
    {
        type            mappedWall;
        inGroups        1(wall);
        nFaces          120;
        startFace       480;
        sampleMode      nearestPatchFace;
        sampleRegion    region0;
        samplePatch     region0_to_wallFilmRegion_wallFilmFaces;
        offsetMode      nonuniform;
        offsets         nonuniform List<vector> 
120
(
(0 0 0)
(0 -1.387778780781446e-17 -1.387778780781446e-17)
(-5.551115123125783e-17 -6.938893903907228e-18 0)
(-2.775557561562891e-17 0 0)
(0 0 1.387778780781446e-17)
(-2.775557561562891e-17 6.938893903907228e-18 1.387778780781446e-17)
(2.775557561562891e-17 -6.938893903907228e-18 0)
(0 0 -1.387778780781446e-17)
(-2.775557561562891e-17 -6.938893903907228e-18 0)
(0 0 -1.387778780781446e-17)
(0 1.387778780781446e-17 0)
(2.775557561562891e-17 -1.387778780781446e-17 -1.387778780781446e-17)
(1.387778780781446e-17 0 0)
(0 -1.387778780781446e-17 -6.938893903907228e-18)
(0 -6.938893903907228e-18 0)
(1.387778780781446e-17 0 6.938893903907228e-18)
(0 6.938893903907228e-18 0)
(6.938893903907228e-18 6.938893903907228e-18 -6.938893903907228e-18)
(6.938893903907228e-18 -1.387778780781446e-17 -6.938893903907228e-18)
(0 -6.938893903907228e-18 6.938893903907228e-18)
(0 0 -6.938893903907228e-18)
(6.938893903907228e-18 -6.938893903907228e-18 -1.387778780781446e-17)
(0 -1.387778780781446e-17 0)
(3.469446951953614e-18 -6.938893903907228e-18 3.469446951953614e-18)
(-3.469446951953614e-18 6.938893903907228e-18 3.469446951953614e-18)
(1.734723475976807e-18 -6.938893903907228e-18 -6.938893903907228e-18)
(-8.673617379884035e-19 -6.938893903907228e-18 0)
(-4.336808689942018e-19 6.938893903907228e-18 0)
(0 0 -1.734723475976807e-18)
(0 0 -4.336808689942018e-19)
(0 -6.938893903907228e-18 0)
(0 0 -1.387778780781446e-17)
(0 -6.938893903907228e-18 0)
(2.220446049250313e-16 0 -1.387778780781446e-17)
(0 6.938893903907228e-18 0)
(-2.220446049250313e-16 1.387778780781446e-17 4.163336342344337e-17)
(0 0 0)
(0 6.938893903907228e-18 -2.775557561562891e-17)
(2.220446049250313e-16 -6.938893903907228e-18 -1.387778780781446e-17)
(0 6.938893903907228e-18 -1.387778780781446e-17)
(-1.110223024625157e-16 0 0)
(0 0 0)
(0 6.938893903907228e-18 -1.387778780781446e-17)
(0 -6.938893903907228e-18 0)
(0 0 -1.387778780781446e-17)
(1.110223024625157e-16 -1.387778780781446e-17 0)
(0 0 0)
(-1.110223024625157e-16 6.938893903907228e-18 -2.775557561562891e-17)
(0 0 -1.387778780781446e-17)
(1.110223024625157e-16 0 1.387778780781446e-17)
(1.110223024625157e-16 0 0)
(0 -6.938893903907228e-18 0)
(5.551115123125783e-17 -6.938893903907228e-18 -1.387778780781446e-17)
(1.665334536937735e-16 -1.387778780781446e-17 -1.387778780781446e-17)
(5.551115123125783e-17 0 0)
(0 -6.938893903907228e-18 -1.387778780781446e-17)
(0 -1.387778780781446e-17 -1.387778780781446e-17)
(0 -6.938893903907228e-18 -1.387778780781446e-17)
(1.110223024625157e-16 -1.387778780781446e-17 -1.387778780781446e-17)
(1.110223024625157e-16 0 0)
(5.551115123125783e-17 -6.938893903907228e-18 6.938893903907228e-18)
(-1.110223024625157e-16 1.387778780781446e-17 -6.938893903907228e-18)
(0 -1.387778780781446e-17 0)
(0 0 0)
(5.551115123125783e-17 -6.938893903907228e-18 6.938893903907228e-18)
(0 6.938893903907228e-18 -1.387778780781446e-17)
(5.551115123125783e-17 0 0)
(2.775557561562891e-17 6.938893903907228e-18 0)
(2.775557561562891e-17 -6.938893903907228e-18 6.938893903907228e-18)
(0 0 1.387778780781446e-17)
(0 0 0)
(1.387778780781446e-17 -6.938893903907228e-18 6.938893903907228e-18)
(1.387778780781446e-17 -6.938893903907228e-18 6.938893903907228e-18)
(0 0 0)
(1.387778780781446e-17 -6.938893903907228e-18 0)
(0 0 6.938893903907228e-18)
(0 -6.938893903907228e-18 -6.938893903907228e-18)
(-1.387778780781446e-17 0 -6.938893903907228e-18)
(1.387778780781446e-17 -6.938893903907228e-18 0)
(0 -1.387778780781446e-17 -6.938893903907228e-18)
(0 -6.938893903907228e-18 3.469446951953614e-18)
(0 0 6.938893903907228e-18)
(3.469446951953614e-18 -6.938893903907228e-18 0)
(6.938893903907228e-18 0 0)
(0 6.938893903907228e-18 3.469446951953614e-18)
(0 -1.387778780781446e-17 0)
(8.673617379884035e-19 -6.938893903907228e-18 1.734723475976807e-18)
(8.673617379884035e-19 -6.938893903907228e-18 0)
(0 6.938893903907228e-18 -8.673617379884035e-19)
(0 -6.938893903907228e-18 4.336808689942018e-19)
(1.110223024625157e-16 0 0)
(0 -6.938893903907228e-18 -2.081668171172169e-17)
(1.110223024625157e-16 0 -6.938893903907228e-18)
(0 0 6.938893903907228e-18)
(0 0 0)
(2.220446049250313e-16 -1.387778780781446e-17 0)
(1.110223024625157e-16 0 0)
(3.33066907387547e-16 -1.387778780781446e-17 6.938893903907228e-18)
(-3.33066907387547e-16 6.938893903907228e-18 3.469446951953614e-18)
(2.220446049250313e-16 0 0)
(0 -6.938893903907228e-18 0)
(0 0 0)
(1.110223024625157e-16 0 0)
(0 -6.938893903907228e-18 0)
(0 0 0)
(1.110223024625157e-16 -6.938893903907228e-18 0)
(0 0 -4.336808689942018e-19)
(0 0 -8.673617379884035e-19)
(0 0 0)
(1.110223024625157e-16 0 0)
(1.110223024625157e-16 -6.938893903907228e-18 0)
(5.551115123125783e-17 -1.387778780781446e-17 0)
(1.110223024625157e-16 -6.938893903907228e-18 6.938893903907228e-18)
(5.551115123125783e-17 6.938893903907228e-18 0)
(0 6.938893903907228e-18 3.469446951953614e-18)
(0 -6.938893903907228e-18 -3.469446951953614e-18)
(0 -6.938893903907228e-18 6.938893903907228e-18)
(5.551115123125783e-17 0 1.387778780781446e-17)
(5.551115123125783e-17 0 6.938893903907228e-18)
(1.665334536937735e-16 -1.387778780781446e-17 1.387778780781446e-17)
)
;
    }
)

// ************************************************************************* //
