/*--------------------------------*- C++ -*----------------------------------*\
| =========                 |                                                 |
| \\      /  F ield         | OpenFOAM: The Open Source CFD Toolbox           |
|  \\    /   O peration     | Version:  v1806                                 |
|   \\  /    A nd           | Web:      www.OpenFOAM.com                      |
|    \\/     M anipulation  |                                                 |
\*---------------------------------------------------------------------------*/
FoamFile
{
    version     2.0;
    format      ascii;
    class       dictionary;
    object      decomposeParDict;
}
// * * * * * * * * * * * * * * * * * * * * * * * * * * * * * * * * * * * * * //

numberOfSubdomains 12;

method          simple;

coeffs
{
    n           (4 1 3);
    //delta       0.001; // default=0.001
    //order       xyz;   // default=xzy
    dataFile    "";
}

metisCoeffs
{
    processorWeights ( 1 1 1 1 );
}

regions
{
    wallFilmRegion
    {
	numberOfSubdomains 2;

	method          simple;

	coeffs
	{
	    n           (1 1 2);
	}
    }
}

distributed     no;

roots           ( );


// ************************************************************************* //
