/*--------------------------------*- C++ -*----------------------------------*\
| =========                 |                                                 |
| \\      /  F ield         | OpenFOAM: The Open Source CFD Toolbox           |
|  \\    /   O peration     | Version:  v1912                                 |
|   \\  /    A nd           | Website:  www.openfoam.com                      |
|    \\/     M anipulation  |                                                 |
\*---------------------------------------------------------------------------*/
FoamFile
{
    version     2.0;
    format      ascii;
    class       volScalarField;
    object      p;
}
// * * * * * * * * * * * * * * * * * * * * * * * * * * * * * * * * * * * * * //

pOut            1e5;

dimensions      [1 -1 -2 0 0 0 0];

internalField   uniform 1e5;

boundaryField
{

    inlet
    {
        type            calculated;
        value           $internalField;
    }
    back
    {
        type            empty;
    }
    front
    {
        type            empty;
    }
    outlet
    {
        type            calculated;
        value           $internalField;
    }

    region0_to_wallFilmRegion_wallFilmFaces
    {
        type            calculated;
        value           $internalField;
    }
}

// ************************************************************************* //
