/*--------------------------------*- C++ -*----------------------------------*\
| =========                 |                                                 |
| \\      /  F ield         | OpenFOAM: The Open Source CFD Toolbox           |
|  \\    /   O peration     | Version:  v1912                                 |
|   \\  /    A nd           | Website:  www.openfoam.com                      |
|    \\/     M anipulation  |                                                 |
\*---------------------------------------------------------------------------*/
FoamFile
{
    version     2.0;
    format      ascii;
    class       polyBoundaryMesh;
    location    "constant/polyMesh";
    object      boundary;
}
// * * * * * * * * * * * * * * * * * * * * * * * * * * * * * * * * * * * * * //

5
(
    inlet
    {
        type            patch;
        inGroups        1(freestream);
        nFaces          200;
        startFace       31760;
    }
    outlet
    {
        type            patch;
        inGroups        1(freestream);
        nFaces          160;
        startFace       31960;
    }
    back
    {
        type            empty;
        inGroups        1(empty);
        nFaces          16000;
        startFace       32120;
    }
    front
    {
        type            empty;
        inGroups        1(empty);
        nFaces          16000;
        startFace       48120;
    }
    region0_to_wallFilmRegion_wallFilmFaces
    {
        type            mappedWall;
        inGroups        1(wall);
        nFaces          120;
        startFace       64120;
        sampleMode      nearestPatchFace;
        sampleRegion    wallFilmRegion;
        samplePatch     region0_to_wallFilmRegion_wallFilmFaces;
        offsetMode      nonuniform;
        offsets         nonuniform List<vector> 
120
(
(5.551115123e-17 -1.387778781e-17 -1.387778781e-17)
(-5.551115123e-17 1.387778781e-17 -0)
(-8.326672685e-17 6.938893904e-18 -0)
(-2.775557562e-17 1.387778781e-17 -0)
(-2.775557562e-17 6.938893904e-18 1.387778781e-17)
(-0 -6.938893904e-18 1.387778781e-17)
(-5.551115123e-17 6.938893904e-18 1.387778781e-17)
(-0 6.938893904e-18 -0)
(2.775557562e-17 -2.081668171e-17 -1.387778781e-17)
(-2.775557562e-17 1.387778781e-17 1.387778781e-17)
(-2.775557562e-17 6.938893904e-18 6.938893904e-18)
(-1.387778781e-17 -0 6.938893904e-18)
(-4.163336342e-17 1.387778781e-17 -0)
(-2.775557562e-17 2.081668171e-17 6.938893904e-18)
(-0 1.387778781e-17 -0)
(-1.387778781e-17 -0 1.387778781e-17)
(-0 6.938893904e-18 6.938893904e-18)
(6.938893904e-18 6.938893904e-18 -0)
(-0 -0 -0)
(-1.387778781e-17 6.938893904e-18 -0)
(-6.938893904e-18 6.938893904e-18 6.938893904e-18)
(-3.469446952e-18 1.387778781e-17 1.040834086e-17)
(-0 -0 3.469446952e-18)
(-0 -0 3.469446952e-18)
(-1.734723476e-18 1.387778781e-17 -0)
(-1.734723476e-18 1.387778781e-17 -3.469446952e-18)
(8.67361738e-19 6.938893904e-18 -0)
(-8.67361738e-19 6.938893904e-18 -0)
(-1.084202172e-19 -0 -0)
(-1.355252716e-20 -0 -0)
(-0 -0 -1.387778781e-17)
(-2.220446049e-16 6.938893904e-18 2.775557562e-17)
(-1.110223025e-16 1.387778781e-17 -0)
(1.110223025e-16 -6.938893904e-18 -0)
(-1.110223025e-16 6.938893904e-18 -0)
(-2.220446049e-16 -0 -1.387778781e-17)
(-0 -0 -0)
(-0 -0 -0)
(1.110223025e-16 -0 1.387778781e-17)
(-2.220446049e-16 -0 2.775557562e-17)
(-0 1.387778781e-17 1.387778781e-17)
(1.110223025e-16 -0 -0)
(-1.110223025e-16 -0 4.163336342e-17)
(-3.330669074e-16 6.938893904e-18 -0)
(-2.220446049e-16 6.938893904e-18 1.387778781e-17)
(-0 -6.938893904e-18 1.387778781e-17)
(-1.110223025e-16 1.387778781e-17 1.387778781e-17)
(-0 -0 1.387778781e-17)
(-1.110223025e-16 6.938893904e-18 1.387778781e-17)
(-0 1.387778781e-17 -0)
(-0 6.938893904e-18 -0)
(-1.110223025e-16 6.938893904e-18 -0)
(-0 -0 1.387778781e-17)
(-1.665334537e-16 6.938893904e-18 -0)
(1.110223025e-16 -6.938893904e-18 -0)
(-5.551115123e-17 -0 1.387778781e-17)
(-0 -0 -0)
(-0 6.938893904e-18 -1.387778781e-17)
(-0 -0 -0)
(5.551115123e-17 -6.938893904e-18 -1.387778781e-17)
(-5.551115123e-17 1.387778781e-17 -1.387778781e-17)
(-0 -6.938893904e-18 -0)
(-0 -0 -0)
(-0 -0 -6.938893904e-18)
(-2.775557562e-17 6.938893904e-18 -6.938893904e-18)
(-0 6.938893904e-18 -0)
(-5.551115123e-17 6.938893904e-18 -6.938893904e-18)
(-2.775557562e-17 1.387778781e-17 -0)
(-2.775557562e-17 6.938893904e-18 -2.775557562e-17)
(-2.775557562e-17 6.938893904e-18 -6.938893904e-18)
(2.775557562e-17 -0 -0)
(-1.387778781e-17 -6.938893904e-18 -0)
(-0 1.387778781e-17 -6.938893904e-18)
(-4.163336342e-17 1.387778781e-17 -6.938893904e-18)
(-1.387778781e-17 1.387778781e-17 -6.938893904e-18)
(-0 6.938893904e-18 -6.938893904e-18)
(-2.775557562e-17 6.938893904e-18 -6.938893904e-18)
(-0 6.938893904e-18 -0)
(-6.938893904e-18 -0 -6.938893904e-18)
(-0 -0 3.469446952e-18)
(-6.938893904e-18 1.387778781e-17 -6.938893904e-18)
(-0 6.938893904e-18 -3.469446952e-18)
(-6.938893904e-18 -0 -0)
(-0 6.938893904e-18 3.469446952e-18)
(-0 -0 -0)
(-0 -0 -0)
(-8.67361738e-19 6.938893904e-18 -0)
(-8.67361738e-19 -0 -1.734723476e-18)
(-2.168404345e-19 6.938893904e-18 -8.67361738e-19)
(-0 6.938893904e-18 -4.33680869e-19)
(-2.220446049e-16 6.938893904e-18 -0)
(-0 -0 -6.938893904e-18)
(-0 -0 6.938893904e-18)
(-1.110223025e-16 6.938893904e-18 -0)
(-2.220446049e-16 -0 6.938893904e-18)
(1.110223025e-16 -0 6.938893904e-18)
(-0 -0 -6.938893904e-18)
(1.110223025e-16 -0 -0)
(-0 -0 6.938893904e-18)
(-0 -0 -3.469446952e-18)
(1.110223025e-16 -6.938893904e-18 -6.938893904e-18)
(-0 -0 6.938893904e-18)
(-0 -0 6.938893904e-18)
(-0 -0 -3.469446952e-18)
(-3.330669074e-16 6.938893904e-18 8.67361738e-19)
(-0 -0 -2.168404345e-19)
(1.110223025e-16 -0 -0)
(-1.110223025e-16 -6.938893904e-18 -1.734723476e-18)
(-0 -0 -0)
(-1.110223025e-16 -6.938893904e-18 -0)
(-0 -1.387778781e-17 -0)
(-1.110223025e-16 -0 -3.469446952e-18)
(-0 6.938893904e-18 -0)
(-1.110223025e-16 -0 -0)
(-5.551115123e-17 -0 3.469446952e-18)
(-0 -0 -3.469446952e-18)
(-5.551115123e-17 6.938893904e-18 -6.938893904e-18)
(-5.551115123e-17 -0 -6.938893904e-18)
(-0 -0 -0)
(-0 -0 6.938893904e-18)
)
;
    }
)

// ************************************************************************* //
